Version 4
SHEET 1 1176 1336
WIRE 720 -576 640 -576
WIRE 992 -576 784 -576
WIRE 112 -560 32 -560
WIRE 384 -560 176 -560
WIRE -544 -544 -624 -544
WIRE -272 -544 -480 -544
WIRE 848 -512 752 -512
WIRE 992 -512 992 -576
WIRE 992 -512 928 -512
WIRE 240 -496 144 -496
WIRE 384 -496 384 -560
WIRE 384 -496 320 -496
WIRE -416 -480 -512 -480
WIRE -272 -480 -272 -544
WIRE -272 -480 -336 -480
WIRE 640 -400 640 -576
WIRE 672 -400 640 -400
WIRE 752 -400 752 -512
WIRE 752 -400 736 -400
WIRE 800 -400 752 -400
WIRE 32 -384 32 -560
WIRE 64 -384 32 -384
WIRE 144 -384 144 -496
WIRE 144 -384 128 -384
WIRE 192 -384 144 -384
WIRE 992 -384 992 -512
WIRE 992 -384 864 -384
WIRE 1072 -384 992 -384
WIRE -624 -368 -624 -544
WIRE -592 -368 -624 -368
WIRE -512 -368 -512 -480
WIRE -512 -368 -528 -368
WIRE -464 -368 -512 -368
WIRE 384 -368 384 -496
WIRE 384 -368 256 -368
WIRE 512 -368 384 -368
WIRE 640 -368 640 -400
WIRE 640 -368 592 -368
WIRE 800 -368 752 -368
WIRE -272 -352 -272 -480
WIRE -272 -352 -400 -352
WIRE -96 -352 -272 -352
WIRE 32 -352 32 -384
WIRE 32 -352 -16 -352
WIRE 192 -352 144 -352
WIRE -752 -336 -896 -336
WIRE -624 -336 -624 -368
WIRE -624 -336 -672 -336
WIRE -464 -336 -512 -336
WIRE 752 -320 752 -368
WIRE 144 -304 144 -352
WIRE -512 -288 -512 -336
WIRE 640 -288 640 -368
WIRE -896 -272 -896 -336
WIRE 32 -272 32 -352
WIRE -624 -256 -624 -336
FLAG -880 -512 0
FLAG -880 -592 Vcc
FLAG -432 -384 Vcc
FLAG -432 -320 0
FLAG -896 -192 0
FLAG 224 -400 Vcc
FLAG 224 -336 0
FLAG 832 -416 Vcc
FLAG 832 -352 0
FLAG 1072 -384 Vout
IOPIN 1072 -384 Out
FLAG 640 -208 0
FLAG 32 -192 0
FLAG -624 -176 0
FLAG 144 -304 0
FLAG 752 -320 0
FLAG -512 -288 0
SYMBOL voltage -880 -608 R0
WINDOW 123 0 0 Left 0
WINDOW 39 0 0 Left 0
SYMATTR InstName V1
SYMATTR Value 9
SYMBOL res -656 -352 R90
WINDOW 0 0 56 VBottom 2
WINDOW 3 32 56 VTop 2
SYMATTR InstName R1
SYMATTR Value 10k
SYMBOL res -608 -160 R180
WINDOW 0 36 76 Left 2
WINDOW 3 36 40 Left 2
SYMATTR InstName R2
SYMATTR Value 330k
SYMBOL Misc\\signal -896 -288 R0
WINDOW 3 24 42 Left 2
WINDOW 123 24 68 Left 2
WINDOW 39 0 0 Left 0
SYMATTR InstName V2
SYMATTR Value 4.5
SYMATTR Value2 AC 1 0
SYMBOL cap -528 -384 R90
WINDOW 0 0 32 VBottom 2
WINDOW 3 32 32 VTop 2
SYMATTR InstName C1
SYMATTR Value 10n
SYMBOL res -320 -496 R90
WINDOW 0 0 56 VBottom 2
WINDOW 3 32 56 VTop 2
SYMATTR InstName R3
SYMATTR Value 22k
SYMBOL cap -480 -560 R90
WINDOW 0 0 32 VBottom 2
WINDOW 3 32 32 VTop 2
SYMATTR InstName C2
SYMATTR Value 10n
SYMBOL res 0 -368 R90
WINDOW 0 0 56 VBottom 2
WINDOW 3 32 56 VTop 2
SYMATTR InstName R5
SYMATTR Value 15k
SYMBOL res 48 -176 R180
WINDOW 0 36 76 Left 2
WINDOW 3 36 40 Left 2
SYMATTR InstName R6
SYMATTR Value 22k
SYMBOL cap 128 -400 R90
WINDOW 0 0 32 VBottom 2
WINDOW 3 32 32 VTop 2
SYMATTR InstName C3
SYMATTR Value 10n
SYMBOL res 336 -512 R90
WINDOW 0 0 56 VBottom 2
WINDOW 3 32 56 VTop 2
SYMATTR InstName R7
SYMATTR Value 220k
SYMBOL cap 176 -576 R90
WINDOW 0 0 32 VBottom 2
WINDOW 3 32 32 VTop 2
SYMATTR InstName C4
SYMATTR Value 10n
SYMBOL res 608 -384 R90
WINDOW 0 0 56 VBottom 2
WINDOW 3 32 56 VTop 2
SYMATTR InstName R8
SYMATTR Value 1.5k
SYMBOL res 656 -192 R180
WINDOW 0 36 76 Left 2
WINDOW 3 36 40 Left 2
SYMATTR InstName R9
SYMATTR Value 2.2k
SYMBOL cap 736 -416 R90
WINDOW 0 0 32 VBottom 2
WINDOW 3 32 32 VTop 2
SYMATTR InstName C5
SYMATTR Value 10n
SYMBOL res 944 -528 R90
WINDOW 0 0 56 VBottom 2
WINDOW 3 32 56 VTop 2
SYMATTR InstName R10
SYMATTR Value 22k
SYMBOL cap 784 -592 R90
WINDOW 0 0 32 VBottom 2
WINDOW 3 32 32 VTop 2
SYMATTR InstName C6
SYMATTR Value 10n
SYMBOL OpAmps\\opamp2 -432 -416 R0
SYMATTR InstName U1
SYMATTR Value TL084
SYMBOL OpAmps\\opamp2 224 -432 R0
SYMATTR InstName U2
SYMATTR Value TL084
SYMBOL OpAmps\\opamp2 832 -448 R0
SYMATTR InstName U3
SYMATTR Value TL084
TEXT 192 176 Left 2 !* fetched on 2015/3/15 from http://www.ti.com/lit/zip/sloj043\n* LM324 OPERATIONAL AMPLIFIER "MACROMODEL" SUBCIRCUIT\n* CREATED USING PARTS RELEASE 4.01 ON 09/08/89 AT 10:54\n* (REV N/A)      SUPPLY VOLTAGE: 5V\n* CONNECTIONS:   NON-INVERTING INPUT\n*                | INVERTING INPUT\n*                | | POSITIVE POWER SUPPLY\n*                | | | NEGATIVE POWER SUPPLY\n*                | | | | OUTPUT\n*                | | | | |\n.SUBCKT LM324    1 2 3 4 5\n*\n  C1   11 12 5.544E-12\n  C2    6  7 20.00E-12\n  DC    5 53 DX\n  DE   54  5 DX\n  DLP  90 91 DX\n  DLN  92 90 DX\n  DP    4  3 DX\n  EGND 99  0 POLY(2) (3,0) (4,0) 0 .5 .5\n  FB    7 99 POLY(5) VB VC VE VLP VLN 0 15.91E6 -20E6 20E6 20E6 -20E6\n  GA    6  0 11 12 125.7E-6\n  GCM   0  6 10 99 7.067E-9\n  IEE   3 10 DC 10.04E-6\n  HLIM 90  0 VLIM 1K\n  Q1   11  2 13 QX\n  Q2   12  1 14 QX\n  R2    6  9 100.0E3\n  RC1   4 11 7.957E3\n  RC2   4 12 7.957E3\n  RE1  13 10 2.773E3\n  RE2  14 10 2.773E3\n  REE  10 99 19.92E6\n  RO1   8  5 50\n  RO2   7 99 50\n  RP    3  4 30.31E3\n  VB    9  0 DC 0\n  VC 3 53 DC 2.100\n  VE   54  4 DC .6\n  VLIM  7  8 DC 0\n  VLP  91  0 DC 40\n  VLN   0 92 DC 40\n.MODEL DX D(IS=800.0E-18)\n.MODEL QX PNP(IS=800.0E-18 BF=250)\n.ENDS
TEXT -880 -40 Left 2 !.ac dec 100 1 100k
TEXT -872 32 Left 2 ;.tran 1000
TEXT -664 176 Left 2 !* TL084 OPERATIONAL AMPLIFIER "MACROMODEL" SUBCIRCUIT\n* CREATED USING PARTS RELEASE 4.01 ON 06/16/89 AT 13:08\n* (REV N/A)      SUPPLY VOLTAGE: +/-15V\n* CONNECTIONS:   NON-INVERTING INPUT\n*                | INVERTING INPUT\n*                | | POSITIVE POWER SUPPLY\n*                | | | NEGATIVE POWER SUPPLY\n*                | | | | OUTPUT\n*                | | | | |\n.SUBCKT TL084    1 2 3 4 5\n*\n  C1   11 12 3.498E-12\n  C2    6  7 15.00E-12\n  DC    5 53 DX\n  DE   54  5 DX\n  DLP  90 91 DX\n  DLN  92 90 DX\n  DP    4  3 DX\n  EGND 99  0 POLY(2) (3,0) (4,0) 0 .5 .5\n  FB    7 99 POLY(5) VB VC VE VLP VLN 0 4.715E6 -5E6 5E6 5E6 -5E6\n  GA    6  0 11 12 282.8E-6\n  GCM   0  6 10 99 8.942E-9\n  ISS   3 10 DC 195.0E-6\n  HLIM 90  0 VLIM 1K\n  J1   11  2 10 JX\n  J2   12  1 10 JX\n  R2    6  9 100.0E3\n  RD1   4 11 3.536E3\n  RD2   4 12 3.536E3\n  RO1   8  5 150\n  RO2   7 99 150\n  RP    3  4 2.143E3\n  RSS  10 99 1.026E6\n  VB    9  0 DC 0\n  VC    3 53 DC 2.200\n  VE   54  4 DC 2.200\n  VLIM  7  8 DC 0\n  VLP  91  0 DC 25\n  VLN   0 92 DC 25\n.MODEL DX D(IS=800.0E-18)\n.MODEL JX PJF(IS=15.00E-12 BETA=270.1E-6 VTO=-1)\n.ENDS
