Version 4
SHEET 1 2476 1336
WIRE -1056 -976 -1056 -1008
WIRE 720 -576 640 -576
WIRE 992 -576 784 -576
WIRE 112 -560 32 -560
WIRE 384 -560 176 -560
WIRE -544 -544 -624 -544
WIRE -272 -544 -480 -544
WIRE 848 -512 752 -512
WIRE 992 -512 992 -576
WIRE 992 -512 928 -512
WIRE 240 -496 144 -496
WIRE 384 -496 384 -560
WIRE 384 -496 320 -496
WIRE -416 -480 -512 -480
WIRE -272 -480 -272 -544
WIRE -272 -480 -336 -480
WIRE -1888 -464 -1936 -464
WIRE -1744 -464 -1808 -464
WIRE -1424 -464 -1456 -464
WIRE -1312 -464 -1344 -464
WIRE 1680 -416 1680 -496
WIRE 1776 -416 1680 -416
WIRE 640 -400 640 -576
WIRE 672 -400 640 -400
WIRE 752 -400 752 -512
WIRE 752 -400 736 -400
WIRE 800 -400 752 -400
WIRE 1968 -400 1840 -400
WIRE 2160 -400 2048 -400
WIRE 2272 -400 2160 -400
WIRE 32 -384 32 -560
WIRE 64 -384 32 -384
WIRE 144 -384 144 -496
WIRE 144 -384 128 -384
WIRE 192 -384 144 -384
WIRE 992 -384 992 -512
WIRE 992 -384 864 -384
WIRE 1072 -384 992 -384
WIRE 1568 -384 1472 -384
WIRE 1664 -384 1568 -384
WIRE 1776 -384 1664 -384
WIRE -624 -368 -624 -544
WIRE -592 -368 -624 -368
WIRE -512 -368 -512 -480
WIRE -512 -368 -528 -368
WIRE -464 -368 -512 -368
WIRE 384 -368 384 -496
WIRE 384 -368 256 -368
WIRE 512 -368 384 -368
WIRE 640 -368 640 -400
WIRE 640 -368 592 -368
WIRE 800 -368 752 -368
WIRE 2160 -368 2160 -400
WIRE -2208 -352 -2272 -352
WIRE -2064 -352 -2144 -352
WIRE -1936 -352 -1936 -464
WIRE -1936 -352 -1984 -352
WIRE -1856 -352 -1936 -352
WIRE -1744 -352 -1744 -464
WIRE -1712 -352 -1744 -352
WIRE -1600 -352 -1648 -352
WIRE -1456 -352 -1456 -464
WIRE -1456 -352 -1520 -352
WIRE -1408 -352 -1456 -352
WIRE -272 -352 -272 -480
WIRE -272 -352 -400 -352
WIRE -96 -352 -272 -352
WIRE 32 -352 32 -384
WIRE 32 -352 -16 -352
WIRE 192 -352 144 -352
WIRE 1568 -352 1568 -384
WIRE 1664 -352 1664 -384
WIRE -1744 -336 -1744 -352
WIRE -1744 -336 -1792 -336
WIRE -1312 -336 -1312 -464
WIRE -1312 -336 -1344 -336
WIRE -752 -336 -1312 -336
WIRE -624 -336 -624 -368
WIRE -624 -336 -672 -336
WIRE -464 -336 -512 -336
WIRE -1856 -320 -1888 -320
WIRE -1408 -320 -1456 -320
WIRE 752 -320 752 -368
WIRE 144 -304 144 -352
WIRE -512 -288 -512 -336
WIRE 640 -288 640 -368
WIRE 32 -272 32 -352
WIRE -624 -256 -624 -336
WIRE 2160 -256 2160 -288
WIRE 1568 -240 1568 -272
WIRE 1616 -240 1568 -240
WIRE 1664 -240 1664 -288
WIRE 1664 -240 1616 -240
WIRE 1616 -176 1616 -240
WIRE -1152 16 -1152 -32
WIRE -1152 112 -1152 96
WIRE -1072 112 -1152 112
WIRE -1152 128 -1152 112
WIRE -1152 224 -1152 208
WIRE -1152 224 -1280 224
WIRE -1072 224 -1152 224
WIRE -1280 240 -1280 224
WIRE -1152 240 -1152 224
WIRE -1280 336 -1280 304
WIRE -1152 336 -1152 320
FLAG -976 -800 0
FLAG -976 -880 Vcc
FLAG -432 -384 Vcc
FLAG -432 -320 0
FLAG 224 -400 Vcc
FLAG 224 -336 0
FLAG 832 -416 Vcc
FLAG 832 -352 0
FLAG 1072 -384 Vfilter
IOPIN 1072 -384 Out
FLAG 640 -208 0
FLAG 32 -192 0
FLAG -624 -176 0
FLAG -1168 -800 0
FLAG -1168 -880 Vldo
FLAG -512 -288 Vldo
FLAG 144 -304 Vldo
FLAG 752 -320 Vldo
FLAG -1824 -304 0
FLAG -1376 -304 0
FLAG -1824 -368 Vcc
FLAG -1376 -368 Vcc
FLAG -1056 -976 0
FLAG -1888 -320 Vref
FLAG -1456 -320 Vref
FLAG 1616 -176 0
FLAG -1152 336 0
FLAG -1152 -32 Vcc
FLAG -1280 336 0
FLAG -1072 224 Vref
FLAG -1072 112 Vcomp
FLAG 1680 -496 Vcomp
FLAG 1808 -432 Vcc
FLAG 1808 -368 0
FLAG 2160 -256 0
FLAG 1408 -384 Vfilter
IOPIN 1408 -384 In
FLAG 2272 -400 Vout
IOPIN 2272 -400 Out
FLAG -1056 -1088 Vin
FLAG -2272 -352 Vin
IOPIN -2272 -352 In
SYMBOL voltage -976 -896 R0
WINDOW 123 0 0 Left 0
WINDOW 39 0 0 Left 0
SYMATTR InstName V1
SYMATTR Value 9
SYMBOL res -656 -352 R90
WINDOW 0 0 56 VBottom 2
WINDOW 3 32 56 VTop 2
SYMATTR InstName R1
SYMATTR Value 10k
SYMBOL res -608 -160 R180
WINDOW 0 36 76 Left 2
WINDOW 3 36 40 Left 2
SYMATTR InstName R2
SYMATTR Value 330k
SYMBOL cap -528 -384 R90
WINDOW 0 0 32 VBottom 2
WINDOW 3 32 32 VTop 2
SYMATTR InstName C1
SYMATTR Value 10n
SYMBOL res -320 -496 R90
WINDOW 0 0 56 VBottom 2
WINDOW 3 32 56 VTop 2
SYMATTR InstName R3
SYMATTR Value 22k
SYMBOL cap -480 -560 R90
WINDOW 0 0 32 VBottom 2
WINDOW 3 32 32 VTop 2
SYMATTR InstName C2
SYMATTR Value 10n
SYMBOL res 0 -368 R90
WINDOW 0 0 56 VBottom 2
WINDOW 3 32 56 VTop 2
SYMATTR InstName R5
SYMATTR Value 15k
SYMBOL res 48 -176 R180
WINDOW 0 36 76 Left 2
WINDOW 3 36 40 Left 2
SYMATTR InstName R6
SYMATTR Value 22k
SYMBOL cap 128 -400 R90
WINDOW 0 0 32 VBottom 2
WINDOW 3 32 32 VTop 2
SYMATTR InstName C3
SYMATTR Value 10n
SYMBOL res 336 -512 R90
WINDOW 0 0 56 VBottom 2
WINDOW 3 32 56 VTop 2
SYMATTR InstName R7
SYMATTR Value 220k
SYMBOL cap 176 -576 R90
WINDOW 0 0 32 VBottom 2
WINDOW 3 32 32 VTop 2
SYMATTR InstName C4
SYMATTR Value 10n
SYMBOL res 608 -384 R90
WINDOW 0 0 56 VBottom 2
WINDOW 3 32 56 VTop 2
SYMATTR InstName R8
SYMATTR Value 1.5k
SYMBOL res 656 -192 R180
WINDOW 0 36 76 Left 2
WINDOW 3 36 40 Left 2
SYMATTR InstName R9
SYMATTR Value 2.2k
SYMBOL cap 736 -416 R90
WINDOW 0 0 32 VBottom 2
WINDOW 3 32 32 VTop 2
SYMATTR InstName C5
SYMATTR Value 10n
SYMBOL res 944 -528 R90
WINDOW 0 0 56 VBottom 2
WINDOW 3 32 56 VTop 2
SYMATTR InstName R10
SYMATTR Value 22k
SYMBOL cap 784 -592 R90
WINDOW 0 0 32 VBottom 2
WINDOW 3 32 32 VTop 2
SYMATTR InstName C6
SYMATTR Value 10n
SYMBOL Voltage -1168 -896 R0
SYMATTR InstName V3
SYMATTR Value 5
SYMBOL Res -1792 -480 R90
WINDOW 0 0 56 VBottom 2
WINDOW 3 32 56 VTop 2
SYMATTR InstName R4
SYMATTR Value 40k
SYMBOL Res -1968 -368 R90
WINDOW 0 0 56 VBottom 2
WINDOW 3 32 56 VTop 2
SYMATTR InstName R11
SYMATTR Value 1k
SYMBOL Res -1504 -368 R90
WINDOW 0 0 56 VBottom 2
WINDOW 3 32 56 VTop 2
SYMATTR InstName R12
SYMATTR Value 1k
SYMBOL Res -1328 -480 R90
WINDOW 0 0 56 VBottom 2
WINDOW 3 32 56 VTop 2
SYMATTR InstName R13
SYMATTR Value 70k
SYMBOL Cap -2144 -368 R90
WINDOW 0 0 32 VBottom 2
WINDOW 3 32 32 VTop 2
SYMATTR InstName C7
SYMATTR Value 10µ
SYMBOL Cap -1648 -368 R90
WINDOW 0 0 32 VBottom 2
WINDOW 3 32 32 VTop 2
SYMATTR InstName C8
SYMATTR Value 10µ
SYMBOL Voltage -1056 -1104 R0
SYMATTR InstName V4
SYMATTR Value SINE(4 1.5m 1k 5m 0 0 2)
SYMATTR Value2 AC 1 0
SYMBOL diode 1408 -368 R270
WINDOW 0 32 32 VTop 2
WINDOW 3 0 32 VBottom 2
SYMATTR InstName D1
SYMATTR Value 1N4148
SYMBOL Res 1552 -368 R0
SYMATTR InstName R14
SYMATTR Value 50k
SYMBOL Cap 1648 -352 R0
SYMATTR InstName C9
SYMATTR Value 2.2µ
SYMBOL Res -1168 0 R0
SYMATTR InstName R15
SYMATTR Value 27k
SYMBOL Res -1168 112 R0
SYMATTR InstName R16
SYMATTR Value 22k
SYMBOL Res -1168 224 R0
SYMATTR InstName R17
SYMATTR Value 47k
SYMBOL Cap -1296 240 R0
SYMATTR InstName C10
SYMATTR Value 10µ
SYMBOL Res 2144 -384 R0
SYMATTR InstName R18
SYMATTR Value 10k
SYMBOL Res 2064 -416 R90
WINDOW 0 0 56 VBottom 2
WINDOW 3 32 56 VTop 2
SYMATTR InstName R19
SYMATTR Value 20k
SYMBOL opamp2 -432 -416 R0
SYMATTR InstName U1
SYMATTR Value LM324
SYMBOL opamp2 224 -432 R0
SYMATTR InstName U2
SYMATTR Value LM324
SYMBOL opamp2 832 -448 R0
SYMATTR InstName U3
SYMATTR Value LM324
SYMBOL opamp2 -1824 -400 R0
SYMATTR InstName U4
SYMATTR Value LM324
SYMBOL opamp2 -1376 -400 R0
SYMATTR InstName U5
SYMATTR Value LM324
SYMBOL opamp2 1808 -464 R0
SYMATTR InstName U6
SYMATTR Value LM324
TEXT -880 -40 Left 2 ;.ac dec 1k 10 100k
TEXT -872 32 Left 2 ;.tran 10m
TEXT -392 88 Left 2 !.noise V(Vout) V4 dec 1k 10 10k
TEXT 288 320 Left 2 !.lib LM324.ti.lib
