Version 4
SHEET 1 2476 1336
WIRE 592 -912 560 -912
WIRE 656 -912 592 -912
WIRE 960 -912 912 -912
WIRE 1008 -912 960 -912
WIRE 592 -880 592 -912
WIRE 960 -880 960 -912
WIRE -432 -864 -480 -864
WIRE -288 -864 -352 -864
WIRE 32 -864 0 -864
WIRE 144 -864 112 -864
WIRE 592 -784 592 -816
WIRE 784 -784 784 -816
WIRE 784 -784 592 -784
WIRE 960 -784 960 -816
WIRE 960 -784 784 -784
WIRE -752 -752 -816 -752
WIRE -608 -752 -688 -752
WIRE -480 -752 -480 -864
WIRE -480 -752 -528 -752
WIRE -400 -752 -480 -752
WIRE -288 -752 -288 -864
WIRE -256 -752 -288 -752
WIRE -144 -752 -192 -752
WIRE 0 -752 0 -864
WIRE 0 -752 -64 -752
WIRE 48 -752 0 -752
WIRE -288 -736 -288 -752
WIRE -288 -736 -336 -736
WIRE 144 -736 144 -864
WIRE 144 -736 112 -736
WIRE 208 -736 144 -736
WIRE 784 -736 784 -784
WIRE -400 -720 -432 -720
WIRE 48 -720 0 -720
WIRE 720 -576 640 -576
WIRE 992 -576 784 -576
WIRE 112 -560 32 -560
WIRE 384 -560 176 -560
WIRE -544 -544 -624 -544
WIRE -272 -544 -480 -544
WIRE 848 -512 752 -512
WIRE 992 -512 992 -576
WIRE 992 -512 928 -512
WIRE 240 -496 144 -496
WIRE 384 -496 384 -560
WIRE 384 -496 320 -496
WIRE -416 -480 -512 -480
WIRE -272 -480 -272 -544
WIRE -272 -480 -336 -480
WIRE 640 -400 640 -576
WIRE 672 -400 640 -400
WIRE 752 -400 752 -512
WIRE 752 -400 736 -400
WIRE 800 -400 752 -400
WIRE 32 -384 32 -560
WIRE 64 -384 32 -384
WIRE 144 -384 144 -496
WIRE 144 -384 128 -384
WIRE 192 -384 144 -384
WIRE 992 -384 992 -512
WIRE 992 -384 864 -384
WIRE 1072 -384 992 -384
WIRE -624 -368 -624 -544
WIRE -592 -368 -624 -368
WIRE -512 -368 -512 -480
WIRE -512 -368 -528 -368
WIRE -464 -368 -512 -368
WIRE 384 -368 384 -496
WIRE 384 -368 256 -368
WIRE 512 -368 384 -368
WIRE 640 -368 640 -400
WIRE 640 -368 592 -368
WIRE 800 -368 752 -368
WIRE -272 -352 -272 -480
WIRE -272 -352 -400 -352
WIRE -96 -352 -272 -352
WIRE 32 -352 32 -384
WIRE 32 -352 -16 -352
WIRE 192 -352 144 -352
WIRE -752 -336 -832 -336
WIRE -624 -336 -624 -368
WIRE -624 -336 -672 -336
WIRE -464 -336 -512 -336
WIRE 752 -320 752 -368
WIRE 144 -304 144 -352
WIRE -1552 -288 -1552 -320
WIRE -512 -288 -512 -336
WIRE 640 -288 640 -368
WIRE 32 -272 32 -352
WIRE -624 -256 -624 -336
WIRE 528 -32 528 -80
WIRE -528 32 -528 -48
WIRE -432 32 -528 32
WIRE -240 48 -368 48
WIRE -48 48 -160 48
WIRE 64 48 -48 48
WIRE -640 64 -736 64
WIRE -544 64 -640 64
WIRE -432 64 -544 64
WIRE 528 64 528 48
WIRE 608 64 528 64
WIRE -48 80 -48 48
WIRE 528 80 528 64
WIRE -640 96 -640 64
WIRE -544 96 -544 64
WIRE 528 176 528 160
WIRE 528 176 400 176
WIRE 608 176 528 176
WIRE -48 192 -48 160
WIRE 400 192 400 176
WIRE 528 192 528 176
WIRE -640 208 -640 176
WIRE -592 208 -640 208
WIRE -544 208 -544 160
WIRE -544 208 -592 208
WIRE -592 272 -592 208
WIRE 400 288 400 256
WIRE 528 288 528 272
FLAG 464 -752 0
FLAG 464 -832 Vcc
FLAG -432 -384 Vcc
FLAG -432 -320 0
FLAG 224 -400 Vcc
FLAG 224 -336 0
FLAG 832 -416 Vcc
FLAG 832 -352 0
FLAG 1072 -384 Vfilter
IOPIN 1072 -384 Out
FLAG 640 -208 0
FLAG 32 -192 0
FLAG -624 -176 0
FLAG -512 -288 Vldo
FLAG 144 -304 Vldo
FLAG 752 -320 Vldo
FLAG -368 -704 0
FLAG 80 -704 0
FLAG -368 -768 Vcc
FLAG 80 -768 Vcc
FLAG -1552 -288 0
FLAG -432 -720 Vref
FLAG 0 -720 Vref
FLAG -592 272 0
FLAG 528 288 0
FLAG 528 -80 Vcc
FLAG 400 288 0
FLAG 608 64 Vcomp
FLAG -528 -48 Vcomp
FLAG -400 16 Vcc
FLAG -400 80 0
FLAG -48 192 0
FLAG -800 64 Vfilter
IOPIN -800 64 In
FLAG 64 48 Vout
IOPIN 64 48 Out
FLAG -1552 -400 Vin
FLAG -816 -752 Vin
IOPIN -816 -752 In
FLAG 208 -736 Vamp
IOPIN 208 -736 Out
FLAG -832 -336 Vamp
IOPIN -832 -336 In
FLAG 784 -736 0
FLAG 1008 -912 Vldo
FLAG 560 -912 Vcc
FLAG 608 176 Vref
SYMBOL voltage 464 -848 R0
WINDOW 123 0 0 Left 0
WINDOW 39 0 0 Left 0
SYMATTR InstName V1
SYMATTR Value 9
SYMBOL res -656 -352 R90
WINDOW 0 0 56 VBottom 2
WINDOW 3 32 56 VTop 2
SYMATTR InstName R1
SYMATTR Value 10k
SYMBOL res -608 -160 R180
WINDOW 0 36 76 Left 2
WINDOW 3 36 40 Left 2
SYMATTR InstName R2
SYMATTR Value 330k
SYMBOL cap -528 -384 R90
WINDOW 0 0 32 VBottom 2
WINDOW 3 32 32 VTop 2
SYMATTR InstName C1
SYMATTR Value 10n
SYMBOL res -320 -496 R90
WINDOW 0 0 56 VBottom 2
WINDOW 3 32 56 VTop 2
SYMATTR InstName R3
SYMATTR Value 22k
SYMBOL cap -480 -560 R90
WINDOW 0 0 32 VBottom 2
WINDOW 3 32 32 VTop 2
SYMATTR InstName C2
SYMATTR Value 10n
SYMBOL res 0 -368 R90
WINDOW 0 0 56 VBottom 2
WINDOW 3 32 56 VTop 2
SYMATTR InstName R5
SYMATTR Value 15k
SYMBOL res 48 -176 R180
WINDOW 0 36 76 Left 2
WINDOW 3 36 40 Left 2
SYMATTR InstName R6
SYMATTR Value 22k
SYMBOL cap 128 -400 R90
WINDOW 0 0 32 VBottom 2
WINDOW 3 32 32 VTop 2
SYMATTR InstName C3
SYMATTR Value 10n
SYMBOL res 336 -512 R90
WINDOW 0 0 56 VBottom 2
WINDOW 3 32 56 VTop 2
SYMATTR InstName R7
SYMATTR Value 220k
SYMBOL cap 176 -576 R90
WINDOW 0 0 32 VBottom 2
WINDOW 3 32 32 VTop 2
SYMATTR InstName C4
SYMATTR Value 10n
SYMBOL res 608 -384 R90
WINDOW 0 0 56 VBottom 2
WINDOW 3 32 56 VTop 2
SYMATTR InstName R8
SYMATTR Value 1.5k
SYMBOL res 656 -192 R180
WINDOW 0 36 76 Left 2
WINDOW 3 36 40 Left 2
SYMATTR InstName R9
SYMATTR Value 2.2k
SYMBOL cap 736 -416 R90
WINDOW 0 0 32 VBottom 2
WINDOW 3 32 32 VTop 2
SYMATTR InstName C5
SYMATTR Value 10n
SYMBOL res 944 -528 R90
WINDOW 0 0 56 VBottom 2
WINDOW 3 32 56 VTop 2
SYMATTR InstName R10
SYMATTR Value 22k
SYMBOL cap 784 -592 R90
WINDOW 0 0 32 VBottom 2
WINDOW 3 32 32 VTop 2
SYMATTR InstName C6
SYMATTR Value 10n
SYMBOL Res -336 -880 R90
WINDOW 0 0 56 VBottom 2
WINDOW 3 32 56 VTop 2
SYMATTR InstName R4
SYMATTR Value 50k
SYMBOL Res -512 -768 R90
WINDOW 0 0 56 VBottom 2
WINDOW 3 32 56 VTop 2
SYMATTR InstName R11
SYMATTR Value 1k
SYMBOL Res -48 -768 R90
WINDOW 0 0 56 VBottom 2
WINDOW 3 32 56 VTop 2
SYMATTR InstName R12
SYMATTR Value 1k
SYMBOL Res 128 -880 R90
WINDOW 0 0 56 VBottom 2
WINDOW 3 32 56 VTop 2
SYMATTR InstName R13
SYMATTR Value 70k
SYMBOL Cap -688 -768 R90
WINDOW 0 0 32 VBottom 2
WINDOW 3 32 32 VTop 2
SYMATTR InstName C7
SYMATTR Value 10µ
SYMBOL Cap -192 -768 R90
WINDOW 0 0 32 VBottom 2
WINDOW 3 32 32 VTop 2
SYMATTR InstName C8
SYMATTR Value 10µ
SYMBOL Voltage -1552 -416 R0
SYMATTR InstName V4
SYMATTR Value SINE(2 0.5m 1k 10m 0 0 0)
SYMATTR Value2 AC 1 0
SYMBOL diode -800 80 R270
WINDOW 0 32 32 VTop 2
WINDOW 3 0 32 VBottom 2
SYMATTR InstName D1
SYMATTR Value 1N4148
SYMBOL Res -656 80 R0
SYMATTR InstName R14
SYMATTR Value 50k
SYMBOL Cap -560 96 R0
SYMATTR InstName C9
SYMATTR Value 2.2µ
SYMBOL Res 512 -48 R0
SYMATTR InstName R15
SYMATTR Value 27k
SYMBOL Res 512 64 R0
SYMATTR InstName R16
SYMATTR Value 22k
SYMBOL Res 512 176 R0
SYMATTR InstName R17
SYMATTR Value 47k
SYMBOL Cap 384 192 R0
SYMATTR InstName C10
SYMATTR Value 10µ
SYMBOL Res -64 64 R0
SYMATTR InstName R18
SYMATTR Value 10k
SYMBOL Res -144 32 R90
WINDOW 0 0 56 VBottom 2
WINDOW 3 32 56 VTop 2
SYMATTR InstName R19
SYMATTR Value 20k
SYMBOL opamp2 -432 -416 R0
SYMATTR InstName U1
SYMATTR Value LM324
SYMBOL opamp2 224 -432 R0
SYMATTR InstName U2
SYMATTR Value LM324
SYMBOL opamp2 832 -448 R0
SYMATTR InstName U3
SYMATTR Value LM324
SYMBOL opamp2 -368 -800 R0
SYMATTR InstName U4
SYMATTR Value LM324
SYMBOL opamp2 80 -800 R0
SYMATTR InstName U5
SYMATTR Value LM324
SYMBOL opamp2 -400 -16 R0
SYMATTR InstName U6
SYMATTR Value LM324
SYMBOL 7805 784 -912 R0
SYMATTR InstName U7
SYMBOL Cap 576 -880 R0
SYMATTR InstName C11
SYMATTR Value 0.22µ
SYMBOL Cap 944 -880 R0
SYMATTR InstName C12
SYMATTR Value 0.1µ
TEXT -2112 -784 Left 2 ;.ac dec 1k 1 100k
TEXT -2104 -712 Left 2 !.tran 10m
TEXT -1624 -656 Left 2 ;.noise V(Vout) V4 dec 1k 10 10k
TEXT -2096 -632 Left 2 !.lib LM324.ti.lib
