Version 4
SHEET 1 1648 680
WIRE 1184 96 1104 96
WIRE 1456 96 1248 96
WIRE 576 112 496 112
WIRE 848 112 640 112
WIRE -80 128 -160 128
WIRE 192 128 -16 128
WIRE 1312 160 1216 160
WIRE 1456 160 1456 96
WIRE 1456 160 1392 160
WIRE 704 176 608 176
WIRE 848 176 848 112
WIRE 848 176 784 176
WIRE 48 192 -48 192
WIRE 192 192 192 128
WIRE 192 192 128 192
WIRE 1104 272 1104 96
WIRE 1136 272 1104 272
WIRE 1216 272 1216 160
WIRE 1216 272 1200 272
WIRE 1264 272 1216 272
WIRE 496 288 496 112
WIRE 528 288 496 288
WIRE 608 288 608 176
WIRE 608 288 592 288
WIRE 656 288 608 288
WIRE 1456 288 1456 160
WIRE 1456 288 1328 288
WIRE 1536 288 1456 288
WIRE -160 304 -160 128
WIRE -128 304 -160 304
WIRE -48 304 -48 192
WIRE -48 304 -64 304
WIRE 0 304 -48 304
WIRE 848 304 848 176
WIRE 848 304 720 304
WIRE 976 304 848 304
WIRE 1104 304 1104 272
WIRE 1104 304 1056 304
WIRE 1264 304 1216 304
WIRE 192 320 192 192
WIRE 192 320 64 320
WIRE 368 320 192 320
WIRE 496 320 496 288
WIRE 496 320 448 320
WIRE 656 320 608 320
WIRE -288 336 -432 336
WIRE -160 336 -160 304
WIRE -160 336 -208 336
WIRE 0 336 -48 336
WIRE 1216 352 1216 304
WIRE 608 368 608 320
WIRE -48 384 -48 336
WIRE 1104 384 1104 304
WIRE 496 400 496 320
WIRE -160 416 -160 336
FLAG 32 288 Vcc
FLAG 32 352 0
FLAG 688 272 Vcc
FLAG 688 336 0
FLAG 1296 256 Vcc
FLAG 1296 320 0
FLAG 1536 288 Vfilter
IOPIN 1536 288 Out
FLAG 1104 464 0
FLAG 496 480 0
FLAG -160 496 0
FLAG -48 384 Vldo
FLAG 608 368 Vldo
FLAG 1216 352 Vldo
FLAG -432 416 0
FLAG 176 -64 0
FLAG 176 -144 Vcc
FLAG -16 -64 0
FLAG -16 -144 Vldo
SYMBOL res -192 320 R90
WINDOW 0 0 56 VBottom 2
WINDOW 3 32 56 VTop 2
SYMATTR InstName R1
SYMATTR Value 10k
SYMBOL res -144 512 R180
WINDOW 0 36 76 Left 2
WINDOW 3 36 40 Left 2
SYMATTR InstName R2
SYMATTR Value 330k
SYMBOL cap -64 288 R90
WINDOW 0 0 32 VBottom 2
WINDOW 3 32 32 VTop 2
SYMATTR InstName C1
SYMATTR Value 10n
SYMBOL res 144 176 R90
WINDOW 0 0 56 VBottom 2
WINDOW 3 32 56 VTop 2
SYMATTR InstName R3
SYMATTR Value 22k
SYMBOL cap -16 112 R90
WINDOW 0 0 32 VBottom 2
WINDOW 3 32 32 VTop 2
SYMATTR InstName C2
SYMATTR Value 10n
SYMBOL res 464 304 R90
WINDOW 0 0 56 VBottom 2
WINDOW 3 32 56 VTop 2
SYMATTR InstName R4
SYMATTR Value 15k
SYMBOL res 512 496 R180
WINDOW 0 36 76 Left 2
WINDOW 3 36 40 Left 2
SYMATTR InstName R5
SYMATTR Value 22k
SYMBOL cap 592 272 R90
WINDOW 0 0 32 VBottom 2
WINDOW 3 32 32 VTop 2
SYMATTR InstName C3
SYMATTR Value 10n
SYMBOL res 800 160 R90
WINDOW 0 0 56 VBottom 2
WINDOW 3 32 56 VTop 2
SYMATTR InstName R6
SYMATTR Value 220k
SYMBOL cap 640 96 R90
WINDOW 0 0 32 VBottom 2
WINDOW 3 32 32 VTop 2
SYMATTR InstName C4
SYMATTR Value 10n
SYMBOL res 1072 288 R90
WINDOW 0 0 56 VBottom 2
WINDOW 3 32 56 VTop 2
SYMATTR InstName R7
SYMATTR Value 1.5k
SYMBOL res 1120 480 R180
WINDOW 0 36 76 Left 2
WINDOW 3 36 40 Left 2
SYMATTR InstName R8
SYMATTR Value 2.2k
SYMBOL cap 1200 256 R90
WINDOW 0 0 32 VBottom 2
WINDOW 3 32 32 VTop 2
SYMATTR InstName C5
SYMATTR Value 10n
SYMBOL res 1408 144 R90
WINDOW 0 0 56 VBottom 2
WINDOW 3 32 56 VTop 2
SYMATTR InstName R9
SYMATTR Value 22k
SYMBOL cap 1248 80 R90
WINDOW 0 0 32 VBottom 2
WINDOW 3 32 32 VTop 2
SYMATTR InstName C6
SYMATTR Value 10n
SYMBOL opamp2 32 256 R0
SYMATTR InstName U1
SYMATTR Value LM324
SYMBOL opamp2 688 240 R0
SYMATTR InstName U2
SYMATTR Value LM324
SYMBOL opamp2 1296 224 R0
SYMATTR InstName U3
SYMATTR Value LM324
SYMBOL Voltage -432 320 R0
SYMATTR InstName V1
SYMATTR Value 4.5
SYMATTR Value2 AC 1 0
SYMBOL voltage 176 -160 R0
WINDOW 123 0 0 Left 0
WINDOW 39 0 0 Left 0
SYMATTR InstName V2
SYMATTR Value 9
SYMBOL Voltage -16 -160 R0
SYMATTR InstName V3
SYMATTR Value 5
