Version 4
SHEET 1 1176 1336
WIRE 720 -576 640 -576
WIRE 992 -576 784 -576
WIRE 112 -560 32 -560
WIRE 384 -560 176 -560
WIRE -544 -544 -624 -544
WIRE -272 -544 -480 -544
WIRE 848 -512 752 -512
WIRE 992 -512 992 -576
WIRE 992 -512 928 -512
WIRE 240 -496 144 -496
WIRE 384 -496 384 -560
WIRE 384 -496 320 -496
WIRE -416 -480 -512 -480
WIRE -272 -480 -272 -544
WIRE -272 -480 -336 -480
WIRE 640 -400 640 -576
WIRE 672 -400 640 -400
WIRE 752 -400 752 -512
WIRE 752 -400 736 -400
WIRE 800 -400 752 -400
WIRE 32 -384 32 -560
WIRE 64 -384 32 -384
WIRE 144 -384 144 -496
WIRE 144 -384 128 -384
WIRE 192 -384 144 -384
WIRE 992 -384 992 -512
WIRE 992 -384 864 -384
WIRE 1072 -384 992 -384
WIRE -624 -368 -624 -544
WIRE -592 -368 -624 -368
WIRE -512 -368 -512 -480
WIRE -512 -368 -528 -368
WIRE -464 -368 -512 -368
WIRE 384 -368 384 -496
WIRE 384 -368 256 -368
WIRE 512 -368 384 -368
WIRE 640 -368 640 -400
WIRE 640 -368 592 -368
WIRE 800 -368 752 -368
WIRE -272 -352 -272 -480
WIRE -272 -352 -400 -352
WIRE -96 -352 -272 -352
WIRE 32 -352 32 -384
WIRE 32 -352 -16 -352
WIRE 192 -352 144 -352
WIRE -752 -336 -896 -336
WIRE -624 -336 -624 -368
WIRE -624 -336 -672 -336
WIRE -464 -336 -512 -336
WIRE 752 -320 752 -368
WIRE 144 -304 144 -352
WIRE -512 -288 -512 -336
WIRE 640 -288 640 -368
WIRE -896 -272 -896 -336
WIRE 32 -272 32 -352
WIRE -624 -256 -624 -336
FLAG -880 -512 0
FLAG -880 -592 Vcc
FLAG -432 -384 Vcc
FLAG -432 -320 0
FLAG -896 -192 0
FLAG 224 -400 Vcc
FLAG 224 -336 0
FLAG 832 -416 Vcc
FLAG 832 -352 0
FLAG 1072 -384 Vout
IOPIN 1072 -384 Out
FLAG 640 -208 0
FLAG 32 -192 0
FLAG -624 -176 0
FLAG -1072 -512 0
FLAG -1072 -592 Vss
FLAG -512 -288 Vss
FLAG 144 -304 Vss
FLAG 752 -320 Vss
SYMBOL voltage -880 -608 R0
WINDOW 123 0 0 Left 0
WINDOW 39 0 0 Left 0
SYMATTR InstName V1
SYMATTR Value 9
SYMBOL res -656 -352 R90
WINDOW 0 0 56 VBottom 2
WINDOW 3 32 56 VTop 2
SYMATTR InstName R1
SYMATTR Value 10k
SYMBOL res -608 -160 R180
WINDOW 0 36 76 Left 2
WINDOW 3 36 40 Left 2
SYMATTR InstName R2
SYMATTR Value 330k
SYMBOL cap -528 -384 R90
WINDOW 0 0 32 VBottom 2
WINDOW 3 32 32 VTop 2
SYMATTR InstName C1
SYMATTR Value 10n
SYMBOL res -320 -496 R90
WINDOW 0 0 56 VBottom 2
WINDOW 3 32 56 VTop 2
SYMATTR InstName R3
SYMATTR Value 22k
SYMBOL cap -480 -560 R90
WINDOW 0 0 32 VBottom 2
WINDOW 3 32 32 VTop 2
SYMATTR InstName C2
SYMATTR Value 10n
SYMBOL res 0 -368 R90
WINDOW 0 0 56 VBottom 2
WINDOW 3 32 56 VTop 2
SYMATTR InstName R5
SYMATTR Value 15k
SYMBOL res 48 -176 R180
WINDOW 0 36 76 Left 2
WINDOW 3 36 40 Left 2
SYMATTR InstName R6
SYMATTR Value 22k
SYMBOL cap 128 -400 R90
WINDOW 0 0 32 VBottom 2
WINDOW 3 32 32 VTop 2
SYMATTR InstName C3
SYMATTR Value 10n
SYMBOL res 336 -512 R90
WINDOW 0 0 56 VBottom 2
WINDOW 3 32 56 VTop 2
SYMATTR InstName R7
SYMATTR Value 220k
SYMBOL cap 176 -576 R90
WINDOW 0 0 32 VBottom 2
WINDOW 3 32 32 VTop 2
SYMATTR InstName C4
SYMATTR Value 10n
SYMBOL res 608 -384 R90
WINDOW 0 0 56 VBottom 2
WINDOW 3 32 56 VTop 2
SYMATTR InstName R8
SYMATTR Value 1.5k
SYMBOL res 656 -192 R180
WINDOW 0 36 76 Left 2
WINDOW 3 36 40 Left 2
SYMATTR InstName R9
SYMATTR Value 2.2k
SYMBOL cap 736 -416 R90
WINDOW 0 0 32 VBottom 2
WINDOW 3 32 32 VTop 2
SYMATTR InstName C5
SYMATTR Value 10n
SYMBOL res 944 -528 R90
WINDOW 0 0 56 VBottom 2
WINDOW 3 32 56 VTop 2
SYMATTR InstName R10
SYMATTR Value 22k
SYMBOL cap 784 -592 R90
WINDOW 0 0 32 VBottom 2
WINDOW 3 32 32 VTop 2
SYMATTR InstName C6
SYMATTR Value 10n
SYMBOL UniversalOpAmp2 -432 -352 R0
SYMATTR InstName U1
SYMATTR Value2 Avol=200k GBW=2.5Meg Slew=1.6Meg
SYMATTR SpiceLine2 En=0 Enk=0 In=0 Ink=0 Rin=1T
SYMBOL UniversalOpAmp2 224 -368 R0
SYMATTR InstName U2
SYMATTR Value2 Avol=200k GBW=2.5Meg Slew=1.6Meg
SYMATTR SpiceLine2 En=0 Enk=0 In=0 Ink=0 Rin=1T
SYMBOL UniversalOpAmp2 832 -384 R0
SYMATTR InstName U3
SYMATTR Value2 Avol=200k GBW=2.5Meg Slew=1.6Meg
SYMATTR SpiceLine2 En=0 Enk=0 In=0 Ink=0 Rin=1T
SYMBOL Voltage -1072 -608 R0
SYMATTR InstName V3
SYMATTR Value 5
SYMBOL Voltage -896 -288 R0
SYMATTR InstName V2
SYMATTR Value 4.5
TEXT -872 32 Left 2 !;.ac dec 1k 10 100k
TEXT -392 88 Left 2 !.noise V(Vout) V2 dec 1k 10 100k
