Version 4
SHEET 1 2868 1360
WIRE 256 256 176 256
WIRE 432 256 320 256
WIRE 560 256 432 256
WIRE 624 256 560 256
WIRE 432 288 432 256
WIRE 560 288 560 256
WIRE 432 400 432 352
WIRE 560 400 560 368
WIRE 1344 752 1344 736
WIRE 1472 752 1344 752
WIRE 1600 752 1552 752
WIRE 1120 768 1120 720
WIRE 1344 864 1344 752
WIRE 1472 864 1344 864
WIRE 1600 880 1600 752
WIRE 1600 880 1536 880
WIRE 1472 896 976 896
WIRE 1120 944 1120 848
WIRE 2192 1024 2192 1008
WIRE 2320 1024 2192 1024
WIRE 2448 1024 2400 1024
WIRE 1968 1040 1968 992
WIRE 2608 1040 2608 1024
WIRE 2736 1040 2608 1040
WIRE 2864 1040 2816 1040
WIRE 1120 1072 1120 1024
WIRE 2192 1136 2192 1024
WIRE 2320 1136 2192 1136
WIRE 2448 1152 2448 1024
WIRE 2448 1152 2384 1152
WIRE 2512 1152 2448 1152
WIRE 2608 1152 2608 1040
WIRE 2736 1152 2608 1152
WIRE 2320 1168 1824 1168
WIRE 2864 1168 2864 1040
WIRE 2864 1168 2800 1168
WIRE 2512 1184 2512 1152
WIRE 2736 1184 2512 1184
WIRE 1968 1216 1968 1120
WIRE 1968 1344 1968 1296
FLAG 432 400 0
FLAG 560 400 0
FLAG 1120 1072 0
FLAG 1344 656 0
FLAG 1504 912 0
FLAG 1456 304 0
FLAG 1456 224 Vcc
FLAG 1504 848 Vcc
FLAG 1120 720 Vcc
FLAG 528 912 0
FLAG 528 832 Vin
FLAG 976 896 Vin
FLAG 1968 1344 0
FLAG 2192 928 0
FLAG 2352 1184 0
FLAG 2352 1120 Vcc
FLAG 1968 992 Vcc
FLAG 1824 1168 Vin
FLAG 2608 944 0
FLAG 2768 1200 0
FLAG 2768 1136 Vcc
SYMBOL Diode 256 272 R270
WINDOW 0 32 32 VTop 2
WINDOW 3 0 32 VBottom 2
SYMATTR InstName D1
SYMBOL Cap 416 288 R0
SYMATTR InstName C1
SYMATTR Value 1n
SYMBOL Res 544 272 R0
SYMATTR InstName R1
SYMATTR Value 1k
SYMBOL UniversalOpAmp2 1504 880 R0
SYMATTR InstName U1
SYMBOL Res 1104 752 R0
SYMATTR InstName R2
SYMATTR Value {mc(100k, Tol)}
SYMBOL Res 1104 928 R0
SYMATTR InstName R3
SYMATTR Value {mc(100k, Tol)}
SYMBOL Res 1328 640 R0
SYMATTR InstName R4
SYMATTR Value {mc(1k, Tol)}
SYMBOL Res 1568 736 R90
WINDOW 0 0 56 VBottom 2
WINDOW 3 32 56 VTop 2
SYMATTR InstName R5
SYMATTR Value {mc(350k, Tol)}
SYMBOL Voltage 1456 208 R0
SYMATTR InstName V1
SYMATTR Value 9
SYMBOL Voltage 528 816 R0
SYMATTR InstName V2
SYMBOL UniversalOpAmp2 2352 1152 R0
SYMATTR InstName U2
SYMBOL Res 1952 1024 R0
SYMATTR InstName R6
SYMATTR Value {mc(100k, Tol)}
SYMBOL Res 1952 1200 R0
SYMATTR InstName R7
SYMATTR Value {mc(100k, Tol)}
SYMBOL Res 2176 912 R0
SYMATTR InstName R8
SYMATTR Value {mc(1k, Tol)}
SYMBOL Res 2416 1008 R90
WINDOW 0 0 56 VBottom 2
WINDOW 3 32 56 VTop 2
SYMATTR InstName R9
SYMATTR Value {mc(9k, Tol)}
SYMBOL UniversalOpAmp2 2768 1168 R0
SYMATTR InstName U3
SYMBOL Res 2592 928 R0
SYMATTR InstName R10
SYMATTR Value {mc(1k, Tol)}
SYMBOL Res 2832 1024 R90
WINDOW 0 0 56 VBottom 2
WINDOW 3 32 56 VTop 2
SYMATTR InstName R11
SYMATTR Value {mc(34k, Tol)}
TEXT 320 1272 Left 2 !.dc V2 0 0.02 0.0001
TEXT 776 1136 Left 2 !.param Tol = 0.05\n.step param X 1 100 1
