Version 4
SHEET 1 1604 688
WIRE -304 -192 -304 -240
WIRE -304 -80 -304 -112
WIRE -304 32 -304 0
WIRE -304 128 -304 112
WIRE 112 208 64 208
WIRE 256 208 192 208
WIRE 752 208 720 208
WIRE 864 208 832 208
WIRE -208 320 -336 320
WIRE -64 320 -144 320
WIRE 64 320 64 208
WIRE 64 320 16 320
WIRE 144 320 64 320
WIRE 256 320 256 208
WIRE 464 320 256 320
WIRE 576 320 528 320
WIRE 720 320 720 208
WIRE 720 320 656 320
WIRE 768 320 720 320
WIRE 256 336 256 320
WIRE 256 336 208 336
WIRE 864 336 864 208
WIRE 864 336 832 336
WIRE 1168 336 864 336
WIRE 1392 336 1232 336
WIRE 1488 336 1392 336
WIRE 1600 336 1488 336
WIRE 144 352 112 352
WIRE 768 352 720 352
WIRE 1392 368 1392 336
WIRE 1488 368 1488 336
WIRE 1392 480 1392 448
WIRE 1440 480 1392 480
WIRE 1488 480 1488 432
WIRE 1488 480 1440 480
WIRE 1440 544 1440 480
FLAG 176 368 0
FLAG 800 368 0
FLAG -832 0 0
FLAG -832 -80 Vcc
FLAG 176 304 Vcc
FLAG 800 304 Vcc
FLAG -336 400 0
FLAG 112 352 Vref
FLAG 720 352 Vref
FLAG -640 0 0
FLAG -640 -80 Vref
FLAG 1440 544 0
FLAG -304 128 0
FLAG -304 -240 Vcc
SYMBOL UniversalOpAmp2 176 336 R0
SYMATTR InstName U1
SYMBOL UniversalOpAmp2 800 336 R0
SYMATTR InstName U2
SYMBOL Res 208 192 R90
WINDOW 0 0 56 VBottom 2
WINDOW 3 32 56 VTop 2
SYMATTR InstName R5
SYMATTR Value 40k
SYMBOL Res 32 304 R90
WINDOW 0 0 56 VBottom 2
WINDOW 3 32 56 VTop 2
SYMATTR InstName R6
SYMATTR Value 1k
SYMBOL Res 672 304 R90
WINDOW 0 0 56 VBottom 2
WINDOW 3 32 56 VTop 2
SYMATTR InstName R7
SYMATTR Value 1k
SYMBOL Res 848 192 R90
WINDOW 0 0 56 VBottom 2
WINDOW 3 32 56 VTop 2
SYMATTR InstName R8
SYMATTR Value 60k
SYMBOL Cap -144 304 R90
WINDOW 0 0 32 VBottom 2
WINDOW 3 32 32 VTop 2
SYMATTR InstName C3
SYMATTR Value 10µ
SYMBOL Cap 528 304 R90
WINDOW 0 0 32 VBottom 2
WINDOW 3 32 32 VTop 2
SYMATTR InstName C4
SYMATTR Value 10µ
SYMBOL Voltage -832 -96 R0
SYMATTR InstName V1
SYMATTR Value 9
SYMBOL Voltage -336 304 R0
SYMATTR InstName V2
SYMATTR Value SINE(4 0.5m 1k 0 0 0 2)
SYMBOL Voltage -640 -96 R0
SYMATTR InstName V3
SYMATTR Value 4.5
SYMBOL diode 1168 352 R270
WINDOW 0 32 32 VTop 2
WINDOW 3 0 32 VBottom 2
SYMATTR InstName D1
SYMATTR Value 1N4148
SYMBOL Res 1376 352 R0
SYMATTR InstName R1
SYMATTR Value 50k
SYMBOL Cap 1472 368 R0
SYMATTR InstName C1
SYMATTR Value 2.2µ
SYMBOL Res -320 -208 R0
SYMATTR InstName R2
SYMATTR Value 27k
SYMBOL Res -320 -96 R0
SYMATTR InstName R3
SYMATTR Value 22k
SYMBOL Res -320 16 R0
SYMATTR InstName R4
SYMATTR Value 47k
TEXT -240 496 Left 2 !.tran 10m
